Version 4
SHEET 1 1472 728
WIRE 672 -48 288 -48
WIRE 0 -32 0 -128
WIRE 288 48 288 -48
WIRE 352 48 288 48
WIRE 864 48 480 48
WIRE 976 48 864 48
WIRE 1120 48 1056 48
WIRE 1200 48 1120 48
WIRE 1360 48 1264 48
WIRE 352 80 240 80
WIRE 736 80 480 80
WIRE 784 80 736 80
WIRE 864 80 864 48
WIRE -96 112 -208 112
WIRE 48 112 -32 112
WIRE 352 112 48 112
WIRE 672 112 672 -48
WIRE 672 112 480 112
WIRE 352 144 304 144
WIRE 608 144 480 144
WIRE -208 160 -208 112
WIRE 48 160 48 112
WIRE 608 160 608 144
WIRE 736 160 736 80
WIRE -512 176 -512 160
WIRE 1120 176 1120 48
WIRE 0 240 0 48
WIRE 0 240 -64 240
WIRE 48 240 0 240
WIRE -512 288 -512 256
WIRE 736 288 736 224
WIRE -64 304 -64 240
WIRE 0 320 0 240
WIRE -208 336 -208 240
WIRE 240 352 240 80
WIRE 336 352 240 352
WIRE 416 352 336 352
WIRE 560 352 496 352
WIRE 672 352 672 112
WIRE 672 352 560 352
WIRE 240 432 240 352
WIRE 336 448 336 352
WIRE 496 448 416 448
WIRE 560 448 560 352
WIRE -64 496 -64 368
WIRE 0 496 0 400
WIRE 240 544 240 496
WIRE 240 640 240 624
WIRE 736 640 736 368
WIRE 1120 640 1120 240
FLAG -512 288 0
FLAG -512 160 V
FLAG 304 144 V
FLAG -208 336 0
FLAG 0 -128 V
FLAG -64 496 0
FLAG 0 496 0
FLAG 240 640 0
FLAG 736 640 0
FLAG 1120 640 0
FLAG 608 160 0
FLAG 1264 48 Out
FLAG 1360 48 Vout
IOPIN 1360 48 Out
FLAG -208 112 Vin
SYMBOL voltage -512 160 R0
WINDOW 123 0 0 Left 2
WINDOW 39 0 0 Left 2
SYMATTR InstName V1
SYMATTR Value 3.3
SYMBOL AutoGenerated\\MAX4478 384 144 R0
SYMATTR InstName U1
SYMBOL cap -32 96 R90
WINDOW 0 0 32 VBottom 2
WINDOW 3 32 32 VTop 2
SYMATTR InstName C1
SYMATTR Value 1µ
SYMBOL voltage -208 144 R0
WINDOW 3 24 376 Left 2
WINDOW 123 24 348 Left 2
WINDOW 39 0 0 Left 2
SYMATTR Value ""
SYMATTR Value2 AC 0.316
SYMATTR InstName V2
SYMBOL res 32 144 R0
SYMATTR InstName R1
SYMATTR Value 47k
SYMBOL cap -80 304 R0
SYMATTR InstName C2
SYMATTR Value 100µ
SYMBOL res -16 304 R0
SYMATTR InstName R2
SYMATTR Value 10k
SYMBOL res -16 -48 R0
SYMATTR InstName R3
SYMATTR Value 10k
SYMBOL res 512 336 R90
WINDOW 0 0 56 VBottom 2
WINDOW 3 32 56 VTop 2
SYMATTR InstName R4
SYMATTR Value 180k
SYMBOL res 432 432 R90
WINDOW 0 0 56 VBottom 2
WINDOW 3 32 56 VTop 2
SYMATTR InstName R5
SYMATTR Value 10k
SYMBOL cap 560 432 R90
WINDOW 0 0 32 VBottom 2
WINDOW 3 32 32 VTop 2
SYMATTR InstName C3
SYMATTR Value 22n
SYMBOL cap 224 432 R0
SYMATTR InstName C4
SYMATTR Value 10µ
SYMBOL res 224 528 R0
SYMATTR InstName R6
SYMATTR Value 4.7k
SYMBOL res 880 64 R90
WINDOW 0 0 56 VBottom 2
WINDOW 3 32 56 VTop 2
SYMATTR InstName R7
SYMATTR Value 1000
SYMBOL cap 720 160 R0
SYMATTR InstName C5
SYMATTR Value 22µ
SYMBOL res 720 272 R0
SYMATTR InstName R8
SYMATTR Value 2.7k
SYMBOL res 1072 32 R90
WINDOW 0 0 56 VBottom 2
WINDOW 3 32 56 VTop 2
SYMATTR InstName R9
SYMATTR Value 820
SYMBOL cap 1104 176 R0
SYMATTR InstName C6
SYMATTR Value 82n
SYMBOL cap 1264 32 R90
WINDOW 0 0 32 VBottom 2
WINDOW 3 32 32 VTop 2
SYMATTR InstName C7
SYMATTR Value 1µ
TEXT -544 664 Left 2 !.ac oct 100 10 25k
TEXT -544 712 Left 2 !;noise V(Vout) V2 oct 100 100 30000
TEXT -536 616 Left 2 !;tran 10ms
TEXT -536 576 Left 2 !;tf V(Vout) V2
